Version 4
SHEET 1 880 680
WIRE 64 64 64 64
WIRE 48 32 48 32
WIRE 144 32 48 32
WIRE 128 32 128 32
WIRE 64 144 128 144
WIRE 128 144 128 32
WIRE 64 32 128 32
SYMBOL res 64 -32 R90
SYMATTR InstName R0
SYMATTR Value 2
WINDOW 0 0 56 VBottom 2
WINDOW 3 32 56 VTop 2
SYMBOL diode 48 -32 R90
SYMATTR InstName D0
WINDOW 0 0 32 VBottom 2
WINDOW 3 32 32 VTop 2
SYMBOL voltage 64 -64 R0
SYMATTR InstName V0
SYMATTR Value 5
WINDOW 123 0 0 VLeft 0
WINDOW 39 0 0 VLeft 0
WIRE 48 32 48 32
WIRE 160 32 48 32
WIRE 144 16 48 16
WIRE 48 16 48 32
WIRE 128 32 128 32
WIRE 80 32 128 32
WIRE 64 16 128 16
WIRE 128 16 128 32
SYMBOL ind 80 -32 R90
SYMATTR InstName L0
SYMATTR Value 2
WINDOW 0 5 56 VBottom 2
WINDOW 3 32 56 VTop 2
SYMBOL diode 64 -16 R90
SYMATTR InstName D0
WINDOW 0 0 32 VBottom 2
WINDOW 3 32 32 VTop 2
SYMBOL current 48 -32 R90
SYMATTR InstName I0
SYMATTR Value 1
WINDOW 0 -32 40 VBottom 2
WINDOW 3 32 40 VTop 
